Version 4
SHEET 1 880 680
WIRE 592 16 528 16
WIRE 592 48 544 48
WIRE 48 64 48 0
WIRE 144 64 48 64
WIRE 448 80 288 80
WIRE 0 96 0 0
WIRE 144 96 0 96
WIRE 496 112 288 112
WIRE 144 128 -48 128
WIRE 544 144 544 48
WIRE 560 144 544 144
WIRE 528 176 528 16
WIRE 560 176 528 176
WIRE 48 208 48 64
WIRE 144 208 48 208
WIRE 496 208 496 112
WIRE 560 208 496 208
WIRE 752 224 720 224
WIRE 0 240 0 96
WIRE 144 240 0 240
WIRE 560 240 240 240
WIRE 112 272 -256 272
WIRE 144 272 112 272
WIRE 560 272 496 272
WIRE 560 304 528 304
WIRE 48 336 48 208
WIRE 144 336 48 336
WIRE 0 368 0 240
WIRE 144 368 0 368
WIRE 272 368 240 368
WIRE 496 368 496 272
WIRE 496 368 336 368
WIRE -256 384 -256 352
WIRE 112 400 112 272
WIRE 144 400 112 400
WIRE 48 464 48 336
WIRE 144 464 48 464
WIRE 0 496 0 368
WIRE 144 496 0 496
WIRE 528 496 528 304
WIRE 528 496 272 496
WIRE 112 528 112 400
WIRE 144 528 112 528
FLAG 48 0 A
IOPIN 48 0 In
FLAG 0 0 B
IOPIN 0 0 In
FLAG -48 128 Cin
IOPIN -48 128 In
FLAG 448 80 Cout
IOPIN 448 80 Out
FLAG 592 16 S1
IOPIN 592 16 In
FLAG 592 48 S0
IOPIN 592 48 In
FLAG 752 224 O
IOPIN 752 224 Out
FLAG -256 384 0
SYMBOL Full_Adder 208 96 R0
SYMATTR InstName Full_Adder
SYMBOL 4x1_mux 640 224 R0
SYMATTR InstName X2
SYMBOL CMOS_and 192 240 R0
SYMATTR InstName AND
SYMBOL CMOS_or 192 368 R0
SYMATTR InstName OR
SYMBOL CMOS_not 304 368 R0
SYMATTR InstName NOT
SYMBOL CMOS_xor 208 496 R0
SYMATTR InstName XOR
SYMBOL voltage -256 256 R0
WINDOW 123 0 0 Left 0
WINDOW 39 0 0 Left 0
SYMATTR InstName V1
SYMATTR Value 5
