Version 4
SHEET 1 988 680
WIRE 160 112 160 48
WIRE 208 112 160 112
WIRE 208 144 128 144
WIRE 400 144 368 144
WIRE 432 144 400 144
WIRE 208 176 128 176
WIRE 512 224 512 208
WIRE 544 224 512 224
WIRE 432 256 432 144
WIRE 544 256 432 256
WIRE 848 256 704 256
WIRE 544 288 432 288
WIRE 160 336 160 112
WIRE 208 336 160 336
WIRE 208 368 128 368
WIRE 400 368 368 368
WIRE 432 368 432 288
WIRE 432 368 400 368
WIRE 208 400 128 400
FLAG 848 256 Output
IOPIN 848 256 Out
FLAG 128 144 Va
IOPIN 128 144 In
FLAG 128 176 Vb
IOPIN 128 176 In
FLAG 128 368 Vc
IOPIN 128 368 In
FLAG 128 400 Vd
IOPIN 128 400 In
FLAG 160 48 S0
IOPIN 160 48 In
FLAG 400 144 X1
FLAG 400 368 X2
FLAG 512 208 S1
IOPIN 512 208 In
SYMBOL Draft1 288 144 R0
SYMATTR InstName X1
SYMBOL Draft1 288 368 R0
SYMATTR InstName X2
SYMBOL Draft1 624 256 R0
SYMATTR InstName X3
