Version 4
SHEET 1 880 680
WIRE 80 96 -320 96
WIRE -320 112 -320 96
WIRE 80 112 -144 112
WIRE 416 112 144 112
WIRE 80 128 -32 128
WIRE 80 144 48 144
WIRE 80 160 32 160
WIRE -144 208 -144 192
WIRE -32 208 -32 128
WIRE -32 208 -144 208
WIRE 32 208 32 160
WIRE 32 208 -32 208
WIRE -320 224 -320 192
WIRE -144 224 -144 208
WIRE -144 224 -320 224
WIRE 416 224 416 112
WIRE 496 224 416 224
WIRE 48 240 48 144
WIRE 48 240 -208 240
WIRE -336 256 -384 256
WIRE -320 256 -320 224
WIRE -320 256 -336 256
WIRE -208 272 -208 240
WIRE -384 288 -384 256
WIRE -336 368 -336 256
WIRE -208 368 -208 352
WIRE -208 368 -336 368
FLAG -384 288 0
FLAG 496 224 out
IOPIN 496 224 Out
SYMBOL voltage -320 96 R0
WINDOW 123 0 0 Left 0
WINDOW 39 0 0 Left 0
SYMATTR InstName V1
SYMATTR Value PULSE(0 5 1n 1n 1n 10n 20n)
SYMBOL voltage -144 96 R0
WINDOW 123 0 0 Left 0
WINDOW 39 0 0 Left 0
SYMATTR InstName V2
SYMATTR Value PULSE(0 5 1n 1n 1n 5n 10n)
SYMBOL voltage -208 256 R0
WINDOW 123 0 0 Left 0
WINDOW 39 0 0 Left 0
SYMATTR InstName V3
SYMATTR Value PULSE(0 5 1n 1n 1n 2.5n 5n)
SYMBOL Digital\\xor 128 64 R0
SYMATTR InstName A1
TEXT -410 488 Left 2 !.tran 100n
