Version 4
SHEET 1 1468 800
WIRE 576 -48 480 -48
WIRE 320 -16 304 -16
WIRE 576 -16 576 -48
WIRE 672 -16 576 -16
WIRE 304 0 304 -16
WIRE 304 0 240 0
WIRE 672 0 672 -16
WIRE 704 0 672 0
WIRE 320 16 288 16
WIRE 480 16 480 -48
WIRE 480 16 448 16
WIRE 288 32 288 16
WIRE 288 32 240 32
WIRE 704 32 672 32
WIRE 864 32 800 32
WIRE 320 48 256 48
WIRE 512 48 480 48
WIRE 672 48 672 32
WIRE 672 48 576 48
WIRE 704 64 656 64
WIRE 976 64 896 64
WIRE 272 80 240 80
WIRE 480 80 480 48
WIRE 480 80 272 80
WIRE 864 80 864 32
WIRE 896 80 896 64
WIRE 896 80 864 80
WIRE 976 96 912 96
WIRE 1152 96 1072 96
WIRE 912 112 912 96
WIRE 912 112 864 112
WIRE 976 128 960 128
WIRE 304 144 304 0
WIRE 336 144 304 144
WIRE 704 160 624 160
WIRE 288 176 288 32
WIRE 336 176 288 176
WIRE 512 176 464 176
WIRE 624 176 624 160
WIRE 624 176 576 176
WIRE 704 192 672 192
WIRE 864 192 864 112
WIRE 864 192 800 192
WIRE 160 208 -16 208
WIRE 256 208 256 48
WIRE 256 208 160 208
WIRE 336 208 256 208
WIRE 672 208 672 192
WIRE 672 208 480 208
WIRE 656 224 656 64
WIRE 704 224 656 224
WIRE 272 240 272 80
WIRE 480 240 480 208
WIRE 480 240 272 240
WIRE -16 272 -16 208
WIRE 304 304 304 144
WIRE 704 304 304 304
WIRE 288 336 288 176
WIRE 704 336 288 336
WIRE 864 336 800 336
WIRE 656 368 656 224
WIRE 704 368 656 368
WIRE 992 368 944 368
WIRE -16 384 -16 352
WIRE 864 384 864 336
WIRE 944 384 944 368
WIRE 944 384 864 384
WIRE 992 400 944 400
WIRE 1120 400 1088 400
WIRE 944 416 944 400
WIRE 944 416 864 416
WIRE 960 432 960 128
WIRE 992 432 960 432
WIRE 288 464 288 336
WIRE 704 464 288 464
WIRE 1152 464 1136 464
WIRE 1120 480 1120 400
WIRE 1136 480 1136 464
WIRE 1136 480 1120 480
WIRE 272 496 272 240
WIRE 704 496 272 496
WIRE 864 496 864 416
WIRE 864 496 800 496
WIRE 1152 496 1120 496
WIRE 1328 496 1248 496
WIRE 656 528 656 368
WIRE 704 528 656 528
WIRE 1152 528 1136 528
WIRE 704 624 368 624
WIRE 304 640 304 304
WIRE 368 640 368 624
WIRE 368 640 304 640
WIRE 704 656 400 656
WIRE 1120 656 1120 496
WIRE 1120 656 800 656
WIRE 272 672 272 496
WIRE 400 672 400 656
WIRE 400 672 272 672
WIRE 656 688 656 528
WIRE 704 688 656 688
WIRE 160 768 160 208
WIRE 656 768 656 688
WIRE 656 768 160 768
WIRE 960 768 960 432
WIRE 960 768 656 768
WIRE 1136 768 1136 528
WIRE 1136 768 960 768
FLAG 1152 96 SUM
IOPIN 1152 96 Out
FLAG 1328 496 cout
IOPIN 1328 496 Out
FLAG 240 0 A
IOPIN 240 0 In
FLAG 240 32 B
IOPIN 240 32 In
FLAG 240 80 cin
IOPIN 240 80 In
FLAG -16 384 0
SYMBOL CMOS_xor 384 16 R0
SYMATTR InstName XOR1
SYMBOL CMOS_xor 400 176 R0
SYMATTR InstName XOR2
SYMBOL CMOS_and 752 32 R0
SYMATTR InstName And1
SYMBOL CMOS_and 752 192 R0
SYMATTR InstName AND2
SYMBOL CMOS_and 752 336 R0
SYMATTR InstName AND3
SYMBOL CMOS_and 752 496 R0
SYMATTR InstName AND4
SYMBOL CMOS_not 544 48 R0
SYMATTR InstName NOT1
SYMBOL CMOS_not 544 176 R0
SYMATTR InstName NOT2
SYMBOL CMOS_and 752 656 R0
SYMATTR InstName AND5
SYMBOL CMOS_or 1024 96 R0
SYMATTR InstName OR1
SYMBOL CMOS_or 1040 400 R0
SYMATTR InstName OR2
SYMBOL CMOS_or 1200 496 R0
SYMATTR InstName OR3
SYMBOL voltage -16 256 R0
WINDOW 123 0 0 Left 0
WINDOW 39 0 0 Left 0
SYMATTR InstName V1
SYMATTR Value 5
TEXT -48 776 Left 2 !.tran 100n
