Version 4
SHEET 1 880 680
WIRE -224 32 -288 32
WIRE 16 32 -144 32
WIRE 16 112 16 32
WIRE 144 112 16 112
WIRE -288 144 -288 32
WIRE -160 144 -288 144
WIRE 144 144 -80 144
WIRE 400 160 288 160
WIRE 144 176 -64 176
WIRE 400 192 288 192
WIRE 144 208 16 208
WIRE 144 240 96 240
WIRE -64 288 -64 176
WIRE 16 288 16 208
WIRE 96 288 96 240
WIRE -288 416 -288 144
WIRE -192 416 -288 416
WIRE -64 416 -64 368
WIRE -64 416 -192 416
WIRE 16 416 16 368
WIRE 16 416 -64 416
WIRE 96 416 96 368
WIRE 96 416 16 416
WIRE -192 448 -192 416
FLAG -192 448 0
FLAG 400 160 Cout
IOPIN 400 160 Out
FLAG 400 192 Output
IOPIN 400 192 Out
SYMBOL 1_Bit_ALU 208 176 R0
SYMATTR InstName 1_BIT_ALU
SYMBOL voltage 96 272 R0
WINDOW 123 0 0 Left 0
WINDOW 39 0 0 Left 0
SYMATTR InstName S1
SYMATTR Value 5
SYMBOL voltage 16 272 R0
WINDOW 123 0 0 Left 0
WINDOW 39 0 0 Left 0
SYMATTR InstName S0
SYMATTR Value 5
SYMBOL voltage -64 272 R0
WINDOW 123 0 0 Left 0
WINDOW 39 0 0 Left 0
SYMATTR InstName V3
SYMATTR Value PULSE(0 5 1n 1n 1n 2.5n 5n)
SYMBOL voltage -64 144 R90
WINDOW 0 -32 56 VBottom 2
WINDOW 3 32 56 VTop 2
WINDOW 123 0 0 Left 0
WINDOW 39 0 0 Left 0
SYMATTR InstName B
SYMATTR Value PULSE(0 5 1n 1n 1n 5n 10n)
SYMBOL voltage -128 32 R90
WINDOW 0 -32 56 VBottom 2
WINDOW 3 32 49 VTop 2
WINDOW 123 0 0 Left 0
WINDOW 39 0 0 Left 0
SYMATTR InstName A
SYMATTR Value PULSE(0 5 1n 1n 1n 10n 20n)
TEXT -408 480 Left 2 !.tran 100n
